Circuit: * C:\Users\EosinY\Documents\KiCad\Proj\ElectronicLoad\Main_SMD_Controller\Controller.asc

Direct Newton iteration for .op point succeeded.

Date: Sun Aug 10 00:07:02 2025
Total elapsed time: 0.049 seconds.

tnom = 27
temp = 27
method = modified trap
totiter = 2298
traniter = 2286
tranpoints = 1137
accept = 1109
rejected = 28
matrix size = 96
fillins = 191
solver = Normal
Thread vector: 3.4/5.1[1] 1.2/0.8[6] 0.6/0.5[4] 0.2/1.0[1]  2592/500
Matrix Compiler1: 16.41 KB object code size  1.8/0.8/[0.5]
Matrix Compiler2: 12.04 KB object code size  0.4/0.8/[0.3]

