Circuit: * C:\Users\EosinY\Documents\KiCad\Proj\ElectronicLoad\Main_SMD_Controller\DiffAmp.asc

Early termination of direct N-R iteration.
Direct Newton iteration failed to find .op point.  (Use ".option noopiter" to skip.)
Starting Gmin stepping
Gmin = 10
Gmin = 1.07374
vernier = 0.5
vernier = 0.25
vernier = 0.125
vernier = 0.0625
Gmin = 0.995033
vernier = 0.03125
vernier = 0.015625
vernier = 0.0078125
vernier = 0.00390625
Gmin = 1.00079
vernier = 0.00195313
vernier = 0.000976563
vernier = 0.000488281
Gmin = 0.999936
Gmin = 0
Gmin stepping failed

Starting source stepping with srcstepmethod=0
Source Step = 3.0303%
Source Step = 33.3333%
Source Step = 39.4028%
Starting source stepping with srcstepmethod=1
Source Step = 3.0303%
Source Step = 33.3333%
Source Step = 63.6364%
Source Step = 93.9394%
Source Step = 99.003%
Source stepping failed

Pseudo Transient succeeded in finding the operating point at 24.6715 s.
Semiconductor Device Operating Points:
                        --- Diodes ---
Name:    d:u3:in     d:u3:ip     d:u3:on     d:u3:op     d:u3:gn
Model:    u3:di       u3:di       u3:do       u3:do       u3:dg
Id:      1.20e-11    1.05e-11    1.41e-11    9.88e-12    4.79e-11
Vd:      1.20e+01    1.05e+01    1.41e+01    9.87e+00    4.78e+01
Req:     1.00e-12    1.00e-12    1.00e-12    1.00e-12    1.00e-12
CAP:     0.00e+00    0.00e+00    0.00e+00    0.00e+00    0.00e+00

Name:    d:u3:gp     d:u1:in     d:u1:ip     d:u1:on     d:u1:op
Model:    u3:dg       u1:di       u1:di       u1:do       u1:do
Id:      3.02e-11    1.10e-11    1.15e-11    9.99e-12    1.40e-11
Vd:      3.02e+01    1.10e+01    1.15e+01    9.98e+00    1.40e+01
Req:     1.00e-12    1.00e-12    1.00e-12    1.00e-12    1.00e-12
CAP:     0.00e+00    0.00e+00    0.00e+00    0.00e+00    0.00e+00

Name:    d:u1:gn     d:u1:gp
Model:    u1:dg       u1:dg
Id:      4.26e-11    3.55e-11
Vd:      4.25e+01    3.55e+01
Req:     1.00e-12    1.00e-12
CAP:     0.00e+00    0.00e+00



Date: Mon Nov 17 01:12:50 2025
Total elapsed time: 2.520 seconds.

tnom = 27
temp = 27
method = trap
totiter = 10036
traniter = 0
tranpoints = 0
accept = 0
rejected = 23
matrix size = 184
fillins = 1249
solver = Normal
Thread vector: 4.7/3.3[3] 0.0/0.0[11] 1.9/0.5[9] 0.5/1.6[1]  2592/500
Matrix Compiler1: 169.70 KB object code size  12.2/5.2/[3.3]
Matrix Compiler2: 38.16 KB object code size  2.9/2.5/[0.6]

