Circuit: * C:\Users\EosinY\Documents\KiCad\Proj\ElectronicLoad\Main_SMD_Controller\DiffAmp.asc

Early termination of direct N-R iteration.
Direct Newton iteration failed to find .op point.  (Use ".option noopiter" to skip.)
Starting Gmin stepping
Gmin = 10
Gmin = 1.07374
vernier = 0.5
vernier = 0.25
vernier = 0.125
vernier = 0.0625
Gmin = 0.995033
vernier = 0.03125
vernier = 0.015625
vernier = 0.0078125
vernier = 0.00390625
vernier = 0.00195313
Gmin = 1.00079
vernier = 0.000976563
vernier = 0.000488281
Gmin = 0
Gmin stepping failed

Starting source stepping with srcstepmethod=0
Source Step = 3.0303%
Source Step = 33.3333%
Source Step = 63.6364%
Source Step = 93.9394%
Source stepping succeeded in finding the operating point.


Date: Sat Aug 09 23:52:41 2025
Total elapsed time: 0.153 seconds.

tnom = 27
temp = 27
method = trap
totiter = 1866
traniter = 0
tranpoints = 0
accept = 0
rejected = 0
matrix size = 183
fillins = 718
solver = Normal
Matrix Compiler1:    4017 opcodes
Matrix Compiler2: 29.01 KB object code size  1.2/1.5/[0.5]

