LTspice 26.0.1 for Windows
Circuit: C:\Users\EosinY\Documents\KiCad\Proj\ElectronicLoad\Main_SMD_Controller\Draft2.net
Start Time: Sun Apr 12 14:30:23 2026
solver = Normal
Maximum thread count: 28
tnom = 27
temp = 27
method = trap
Direct Newton iteration succeeded in finding operating point.
Total elapsed time: 0.031 seconds.

Files loaded:
C:\Users\EosinY\Documents\KiCad\Proj\ElectronicLoad\Main_SMD_Controller\Draft2.net
C:\Users\EosinY\AppData\Local\LTspice\lib\sub\UniversalOpAmp1.lib

