LTspice 24.1.10 for Windows
Circuit: C:\Users\EosinY\Documents\KiCad\Proj\ElectronicLoad\Main_SMD_Controller\Draft2.net
Start Time: Sun Dec 14 22:07:12 2025
solver = Normal
Maximum thread count: 28
tnom = 27
temp = 27
method = trap
Direct Newton iteration for .op point succeeded.
Total elapsed time: 0.074 seconds.

Files loaded:
C:\Users\EosinY\Documents\KiCad\Proj\ElectronicLoad\Main_SMD_Controller\Draft2.net
C:\Users\EosinY\AppData\Local\LTspice\lib\cmp\standard.bjt

