LTspice 24.1.10 for Windows
Circuit: C:\Users\EosinY\Documents\KiCad\Proj\ElectronicLoad\Main_SMD_Controller\Draft1.net
Start Time: Sun Dec 14 23:48:47 2025
Options: plotwinsize=0
solver = Normal
Maximum thread count: 28
tnom = 27
temp = 27
method = trap
Direct Newton iteration for .op point succeeded.
Total elapsed time: 27.787 seconds.

Files loaded:
C:\Users\EosinY\Documents\KiCad\Proj\ElectronicLoad\Main_SMD_Controller\Draft1.net
C:\Users\EosinY\AppData\Local\LTspice\lib\cmp\standard.bjt

Fourier components of  V(n003)
N-Period=6
DC component:0.00953099

Harmonic	Frequency	 Fourier 	Normalized	 Phase  	Normalized
 Number 	  [Hz]   	Component	 Component	[degree]	Phase [deg]
    1   	 1.000e+02	 2.546e+00	 1.000e+00	  -98.13°	    0.00°
    2   	 2.000e+02	 9.398e-03	 3.691e-03	  -15.88°	   82.25°
    3   	 3.000e+02	 6.561e-04	 2.577e-04	 -134.20°	  -36.07°
    4   	 4.000e+02	 4.689e-04	 1.841e-04	  101.23°	  199.36°
    5   	 5.000e+02	 3.237e-04	 1.271e-04	   86.16°	  184.28°
    6   	 6.000e+02	 2.575e-04	 1.011e-04	   87.99°	  186.11°
    7   	 7.000e+02	 2.219e-04	 8.713e-05	   88.61°	  186.74°
    8   	 8.000e+02	 1.943e-04	 7.631e-05	   88.74°	  186.86°
    9   	 9.000e+02	 1.727e-04	 6.782e-05	   88.87°	  187.00°
   10   	 1.000e+03	 1.554e-04	 6.104e-05	   88.99°	  187.11°
Partial Harmonic Distortion: 0.371083%
Total Harmonic Distortion:   0.511179%

