LTspice 26.0.1 for Windows
Circuit: C:\Users\EosinY\Documents\KiCad\Proj\ElectronicLoad\Main_SMD_Controller\PIctrl.net
Start Time: Wed May 20 20:09:37 2026
solver = Normal
Maximum thread count: 28
tnom = 27
temp = 27
method = trap
Direct Newton iteration succeeded in finding operating point.
Total elapsed time: 0.039 seconds.

Files loaded:
C:\Users\EosinY\Documents\KiCad\Proj\ElectronicLoad\Main_SMD_Controller\PIctrl.net
C:\Users\EosinY\AppData\Local\LTspice\lib\cmp\standard.bjt
C:\Users\EosinY\AppData\Local\LTspice\lib\sub\UniversalOpAmp1.lib

