LTspice 26.0.2 for Windows
Circuit: C:\Users\EosinY\Documents\KiCad\Proj\ElectronicLoad\Main_SMD_Controller\PowerAmp.net
Start Time: Wed May 20 22:11:01 2026
C:\Users\EosinY\Documents\KiCad\Proj\ElectronicLoad\Main_SMD_Controller\PowerAmp.net(6): This pin name equals one of the port names of the sub-circuit, but at a different position. This is not a problem, but note that as a result none of the pin names may be used by any .meas expressions.
X§U1 Vcc N007 N010 TTD1415B ;§pnba 2)1)3
                                   ^
C:\Users\EosinY\Documents\KiCad\Proj\ElectronicLoad\Main_SMD_Controller\PowerAmp.net(7): This pin name equals one of the port names of the sub-circuit, but at a different position. This is not a problem, but note that as a result none of the pin names may be used by any .meas expressions.
X§U2 Vee N018 N016 TTB1020B ;§pnba 2)1)3
                                   ^
C:\Users\EosinY\Documents\KiCad\Proj\ElectronicLoad\Main_SMD_Controller\PowerAmp.net(12): This pin name equals one of the port names of the sub-circuit, but at a different position. This is not a problem, but note that as a result none of the pin names may be used by any .meas expressions.
X§U3 N006 N008 N011 TTD1415B ;§pnba 2)1)3
                                    ^
C:\Users\EosinY\Documents\KiCad\Proj\ElectronicLoad\Main_SMD_Controller\PowerAmp.net(13): This pin name equals one of the port names of the sub-circuit, but at a different position. This is not a problem, but note that as a result none of the pin names may be used by any .meas expressions.
X§U4 N020 N019 N017 TTB1020B ;§pnba 2)1)3
                                    ^
C:\Users\EosinY\Documents\KiCad\Proj\ElectronicLoad\Main_SMD_Controller\PowerAmp.net(25): This pin name equals one of the port names of the sub-circuit, but at a different position. This is not a problem, but note that as a result none of the pin names may be used by any .meas expressions.
X§U6 N009 N013 N021 TTC5200 ;§pnba 2)1)3
                                   ^
C:\Users\EosinY\Documents\KiCad\Proj\ElectronicLoad\Main_SMD_Controller\PowerAmp.net(26): This pin name equals one of the port names of the sub-circuit, but at a different position. This is not a problem, but note that as a result none of the pin names may be used by any .meas expressions.
X§U9 N009 N012 N015 TTC5200 ;§pnba 2)1)3
                                   ^
solver = Normal
Maximum thread count: 28
tnom = 27
temp = 27
method = trap
Direct Newton iteration succeeded in finding operating point.
Changing Tseed to 2.44141e-13
Warning: Simulation tolerance relaxed to achieve convergence from 6.4357498472947585e-07 to 6.4357498473047588e-07 seconds.
Warning: Simulation tolerance relaxed to achieve convergence from 6.4357498473347586e-07 to 6.4357498473447589e-07 seconds.
Warning: Simulation tolerance relaxed to achieve convergence from 6.4357498473747587e-07 to 6.4357498473847589e-07 seconds.
Warning: Simulation tolerance relaxed to achieve convergence from 6.4357498473947592e-07 to 6.4357498474047595e-07 seconds.
Warning: Simulation tolerance relaxed to achieve convergence from 6.4357498474247601e-07 to 6.4357498474347603e-07 seconds.
Total elapsed time: 0.133 seconds.

Files loaded:
C:\Users\EosinY\Documents\KiCad\Proj\ElectronicLoad\Main_SMD_Controller\PowerAmp.net
C:\Users\EosinY\AppData\Local\LTspice\lib\cmp\standard.bjt
C:\Users\EosinY\AppData\Local\LTspice\lib\sub\Contrib\Toshiba\BJT\TTB1020B_enc.lib
C:\Users\EosinY\AppData\Local\LTspice\lib\sub\Contrib\Toshiba\BJT\TTC5200_enc.lib
C:\Users\EosinY\AppData\Local\LTspice\lib\sub\Contrib\Toshiba\BJT\TTD1415B_enc.lib

