LTspice 24.1.10 for Windows
Circuit: C:\Users\EosinY\Documents\KiCad\Proj\ElectronicLoad\Main_SMD_Controller\VoltMeas.net
Start Time: Thu Nov 20 01:17:15 2025
solver = Normal
Maximum thread count: 28
tnom = 27
temp = 27
method = trap
Direct Newton iteration for .op point succeeded.
Total elapsed time: 0.109 seconds.

Files loaded:
C:\Users\EosinY\Documents\KiCad\Proj\ElectronicLoad\Main_SMD_Controller\VoltMeas.net
C:\Users\EosinY\AppData\Local\LTspice\lib\sub\ADA4510.lib
C:\Users\EosinY\AppData\Local\LTspice\lib\sub\UniversalOpAmp1.lib

