Circuit: * C:\Users\EosinY\Documents\KiCad\Proj\ElectronicLoad-AnalogController\VoltMeas.asc

Direct Newton iteration failed to find .op point.  (Use ".option noopiter" to skip.)
Starting Gmin stepping
Gmin = 10
Gmin = 1.07374
Gmin = 0.115292
Gmin = 0.0123794
Gmin = 0.00132923
Gmin = 0.000142725
vernier = 0.5
vernier = 0.25
Gmin = 3.74144e-005
vernier = 0.125
vernier = 0.0625
Gmin = 3.25869e-005
vernier = 0.0833333
vernier = 0.111111
Gmin = 2.58058e-005
vernier = 0.148148
vernier = 0.197531
Gmin = 1.78355e-005
vernier = 0.263374
Gmin = 1.0032e-005
vernier = 0.351165
vernier = 0.46822
Gmin = 3.88882e-006
vernier = 0.624294
vernier = 0.832392
Gmin = 8.9444e-007
vernier = 1
Gmin = 1.10074e-007
Gmin = 1.18191e-008
Gmin = 1.26906e-009
Gmin = 1.36264e-010
Gmin = 1.46313e-011
Gmin = 1.57102e-012
Gmin = 1.68687e-013
Gmin = 0
Gmin stepping succeeded in finding the operating point.

Direct Newton iteration failed to find .op point.  (Use ".option noopiter" to skip.)
Starting Gmin stepping
Gmin = 10
Gmin = 1.07374
Gmin = 0.115292
Gmin = 0.0123794
Gmin = 0.00132923
Gmin = 0.000142725
vernier = 0.5
vernier = 0.25
Gmin = 3.74144e-005
vernier = 0.125
vernier = 0.166667
Gmin = 2.78249e-005
vernier = 0.222222
Gmin = 1.70856e-005
vernier = 0.296296
vernier = 0.395061
Gmin = 7.63495e-006
vernier = 0.526748
vernier = 0.702331
Gmin = 2.17837e-006
vernier = 0.936441
Gmin = 3.22846e-007
vernier = 1
Gmin = 3.46653e-008
Gmin = 3.72216e-009
Gmin = 3.99664e-010
Gmin = 4.29136e-011
Gmin = 4.60781e-012
Gmin = 4.9476e-013
Gmin = 0
Gmin stepping succeeded in finding the operating point.


Date: Thu Apr 24 13:21:28 2025
Total elapsed time: 0.247 seconds.

tnom = 27
temp = 27
method = trap
totiter = 4072
traniter = 0
tranpoints = 0
accept = 0
rejected = 0
matrix size = 167
fillins = 109
solver = Normal
Thread vector: 6.8/4.0[3] 0.0/0.0[0] 2.6/2.2[3] 0.4/0.7[1]  2592/500
Matrix Compiler1: 15.98 KB object code size  3.5/1.1/[0.8]
Matrix Compiler2: 16.59 KB object code size  1.1/1.1/[0.7]

